LTspice 24.1.9 for Windows
Circuit: C:\Users\shimo\Desktop\LTspice_anacon2025\Anacon_lv2\mass-spring_lv2_real.net
Start Time: Mon Jun 30 21:11:53 2025
solver = Alternate
Maximum thread count: 10
tnom = 27
temp = 27
method = trap
Direct Newton iteration for .op point succeeded.
Total elapsed time: 0.042 seconds.

Files loaded:
C:\Users\shimo\Desktop\LTspice_anacon2025\Anacon_lv2\mass-spring_lv2_real.net
C:\Users\shimo\AppData\Local\LTspice\lib\sub\opamp.sub

